/*--------------------------------*- C++ -*----------------------------------*\
| =========                 |                                                 |
| \\      /  F ield         | OpenFOAM: The Open Source CFD Toolbox           |
|  \\    /   O peration     | Version:  2406                                  |
|   \\  /    A nd           | Website:  www.openfoam.com                      |
|    \\/     M anipulation  |                                                 |
\*---------------------------------------------------------------------------*/
FoamFile
{
    version     2.0;
    format      ascii;
    arch        "LSB;label=32;scalar=64";
    class       polyBoundaryMesh;
    location    "constant/polyMesh";
    object      boundary;
}
// * * * * * * * * * * * * * * * * * * * * * * * * * * * * * * * * * * * * * //

5
(
    lateral_sides
    {
        type            patch;
        physicalType    patch;
        nFaces          7722;
        startFace       7584;
    }
    longitudinal_symmetry
    {
        type            patch;
        physicalType    patch;
        nFaces          99;
        startFace       15306;
    }
    outlet
    {
        type            patch;
        physicalType    patch;
        nFaces          39;
        startFace       15405;
    }
    outerwall
    {
        type            patch;
        physicalType    patch;
        nFaces          99;
        startFace       15444;
    }
    inlet
    {
        type            patch;
        physicalType    patch;
        nFaces          39;
        startFace       15543;
    }
)

// ************************************************************************* //
