/*--------------------------------*- C++ -*----------------------------------*\
  =========                 |
  \\      /  F ield         | OpenFOAM: The Open Source CFD Toolbox
   \\    /   O peration     | Website:  https://openfoam.org
    \\  /    A nd           | Version:  6
     \\/     M anipulation  |
\*---------------------------------------------------------------------------*/
FoamFile
{
    version     2.0;
    format      ascii;
    class       volScalarField;
    location    "0";
    object      Ma;
}
// * * * * * * * * * * * * * * * * * * * * * * * * * * * * * * * * * * * * * //

dimensions      [0 0 0 0 0 0 0];

internalField   uniform 0;

8988
(
0.4735572030393217
0.4735572030393217
0.4735572030393217
0.4735572030393217
0.4735572030393217
0.4735572030393217
0.4735572030393217
0.4735572030393217
0.4735572030393217
0.4735572030393217
0.4735572030393217
0.4735572030393217
0.4735572030393217
0.4735572030393217
0.4735572030393217
0.4735572030393217
0.4735572030393217
0.4735572030393217
0.4735572030393217
0.4735572030393217
0.4735572030393217
0.4735572030393217
0.4735572030393217
0.4735572030393217
0.4735572030393217
0.4735572030393217
0.4735572030393217
0.4735572030393217
0.4735572030393217
0.4735572030393217
0.4735572030393217
0.4735572030393217
0.4735572030393217
0.4735572030393217
0.4735572030393217
0.4735572030393217
0.4735572030393217
0.4735572030393217
0.4735572030393217
0.4735572030393217
0.4735572030393217
0.4735572030393217
0.4736869009785487
0.4736868995446285
0.4736868995446285
0.4736868995446285
0.4736868981107083
0.4736868981107083
0.4736868981107083
0.4736868966767881
0.4736868966767881
0.4736868952428679
0.4736868952428679
0.4736868938089477
0.4736868938089477
0.4736868923750275
0.4736868923750275
0.4736868909411073
0.47368688950718707
0.47368688807326687
0.47368688663934666
0.47368688663934666
0.47368688520542646
0.47368688377150625
0.47368688090366584
0.47368687946974564
0.47368687803582543
0.4736868766019052
0.4736868737340648
0.4736868723001446
0.4736868694323042
0.4736868665644638
0.4736868636966234
0.4736868608287829
0.4736868579609425
0.4736868550931021
0.4736868507913415
0.4736868479235011
0.47368684362174046
0.47368683931997985
0.47368683501821923
0.4736868292825384
0.4736868249807778
0.473686819245097
0.4739447356980391
0.4739447356980391
0.4739447356980391
0.47394473283308153
0.473944729968124
0.473944729968124
0.47394472710316643
0.47394472710316643
0.4739447242382089
0.47394472137325133
0.4739447185082938
0.47394471564333623
0.47394471564333623
0.4739447127783787
0.4739447070484636
0.47394470418350604
0.4739447013185485
0.47394469845359094
0.47394469272367584
0.4739446898587183
0.4739446841288032
0.47394468126384565
0.47394467553393055
0.47394466980401545
0.47394466407410035
0.4739446554792277
0.47394464974931266
0.47394464401939757
0.4739446354245249
0.47394462682965227
0.4739446182347796
0.47394460677494943
0.4739445981800768
0.4739445867202466
0.4739445752604164
0.4739445638005862
0.47394454947579845
0.4739445351510107
0.4739445179612654
0.47394450363647767
0.4739444864467324
0.4739444663920296
0.4743293890501413
0.4743293847545943
0.4743293847545943
0.4743293804590472
0.4743293761635002
0.4743293718679531
0.47432936757240607
0.474329363276859
0.474329363276859
0.47432935468576487
0.47432935039021784
0.47432934609467076
0.4743293417991237
0.4743293332080296
0.4743293289124826
0.47432932032138847
0.4743293160258414
0.47432930743474727
0.47432929884365316
0.47432929025255904
0.474329281661465
0.4743292687748238
0.4743292601837297
0.47432924729708853
0.47432923441044733
0.4743292215238062
0.47432920863716505
0.4743291914549768
0.4743291742727886
0.47432915709060036
0.47432913990841213
0.4743291184306769
0.4743290969529416
0.47432907547520636
0.474329049701924
0.4743290239286417
0.47432899815535934
0.47432896808652997
0.4743289337221535
0.4743288993577771
0.47432886499340066
0.47432882633347717
0.4748388644255002
0.4748388587073542
0.47483885298920814
0.4748388472710621
0.47483884155291606
0.47483883583477005
0.47483883011662403
0.47483882439847797
0.47483881868033195
0.4748388072440399
0.47483880152589386
0.4748387900896018
0.4748387843714557
0.4748387729351637
0.4748387614988716
0.47483875006257953
0.47483873862628745
0.47483872718999537
0.4748387100355573
0.4748386928811192
0.4748386814448271
0.474838664290389
0.4748386414178049
0.47483862426336676
0.47483860139078266
0.4748385785181985
0.4748385556456144
0.47483853277303023
0.47483850418230006
0.4748384755915699
0.4748384412826937
0.47483840697381746
0.4748383726649413
0.474838332637919
0.4748382926108968
0.4748382468657285
0.47483820112056024
0.4748381496572459
0.4748380924757856
0.4748380352943253
0.47483797811286493
0.4748379094951125
0.47547138012447737
0.475471372989581
0.47547136585468464
0.47547135871978824
0.47547135158489184
0.47547134444999545
0.4754713301802027
0.4754713230453063
0.47547131591041
0.4754713016406172
0.47547128737082445
0.47547127310103166
0.4754712588312389
0.4754712445614461
0.4754712302916534
0.47547120888696426
0.47547119461717147
0.47547117321248233
0.4754711518077932
0.47547113040310407
0.47547110899841494
0.4754710804588294
0.4754710519192439
0.47547102337965835
0.4754709877051765
0.47547095916559096
0.4754709163562127
0.47547088068173077
0.4754708378723525
0.47547079506297424
0.4754707451186996
0.4754706951744249
0.47547063809525386
0.4754705810160828
0.4754705239369118
0.47547045258794796
0.47547038123898416
0.47547030989002037
0.47547022427126384
0.47547013865250726
0.47547004589885433
0.475469946010305
0.4762253573973149
0.4762253488494982
0.4762253403016814
0.47622533175386467
0.4762253232060479
0.47622530611041436
0.4762252975625976
0.4762252804669641
0.4762252633713306
0.47622524627569707
0.47622522918006355
0.47622521208443
0.4762251949887965
0.4762251693453462
0.47622515224971274
0.4762251266062624
0.4762251009628122
0.47622506677154514
0.47622504112809483
0.4762250069368278
0.47622497274556075
0.47622493855429376
0.47622489581520994
0.4762248616239429
0.47622481033704234
0.47622476759795856
0.476224716311058
0.4762246564763407
0.47622460518944015
0.4762245368069061
0.4762244769721888
0.4762244000418379
0.4762243231114871
0.4762242461811363
0.4762241607029687
0.47622406667698436
0.47622396410318324
0.4762238615293821
0.47622374185994754
0.4762236221905129
0.4762234939732615
0.47622335720819337
0.47710033276442154
0.4771003227948965
0.4771003128253714
0.4771002928863213
0.47710028291679624
0.4771002629777461
0.47710024303869597
0.47710022309964584
0.4771002031605957
0.4771001832215456
0.4771001632824955
0.47710013337392027
0.4771001134348702
0.47710008352629496
0.4771000536177198
0.4771000237091446
0.47709998383104435
0.4770999539224692
0.4770999140443689
0.4770998641967436
0.47709982431864334
0.47709977447101803
0.47709972462339273
0.4770996648062424
0.477099604989092
0.4770995451719416
0.47709947538526615
0.4770994055985907
0.47709932584239023
0.47709924608618975
0.4770991563604642
0.4770990666347386
0.477098966939488
0.4770988572747123
0.47709873764041155
0.4770986180061108
0.47709848840228497
0.4770983488289341
0.47709818931653314
0.47709802980413213
0.4770978603222061
0.47709767090122984
0.47809326076959696
0.47809323802861775
0.47809322665812815
0.47809320391714893
0.47809319254665933
0.47809316980568006
0.47809314706470085
0.47809312432372164
0.4780930902122528
0.4780930674712736
0.47809303335980474
0.47809301061882553
0.4780929765073567
0.4780929423958879
0.4780928969139294
0.4780928628024606
0.4780928173205022
0.47809277183854376
0.4780927149860957
0.47809266950413726
0.47809261265168923
0.47809254442875154
0.4780924762058139
0.4780924079828762
0.4780923397599386
0.4780922601665113
0.4780921692025944
0.47809207823867755
0.47809198727476065
0.47809187356986454
0.4780917598649685
0.4780916461600724
0.47809152108468667
0.47809138463881135
0.4780912368224464
0.4780910776355919
0.47809090707824775
0.47809072515041395
0.4780905432225802
0.47809033855376726
0.47809011114397504
0.4780898837341829
0.4792030974891999
0.4792030847157184
0.4792030591687552
0.47920303362179206
0.47920300807482896
0.4792029825278658
0.47920295698090265
0.47920293143393955
0.47920289311349484
0.4792028675665317
0.479202829246087
0.4792027909256423
0.47920275260519757
0.4792027015112713
0.4792026631908266
0.4792026120969003
0.47920254822949243
0.4792024971355662
0.4792024332681583
0.4792023694007505
0.4792022927598611
0.47920222889245323
0.47920213947808227
0.47920205006371125
0.4792019606493403
0.4792018712349693
0.4792017562736352
0.4792016413123011
0.47920152635096697
0.47920139861615124
0.47920125810785397
0.47920111759955675
0.4792009515442963
0.47920078548903594
0.47920060666029396
0.47920041505807043
0.47920021068236535
0.4791999807596971
0.47919975083702887
0.4791994953673975
0.47919922712428453
0.47919893333420843
0.480429900467946
0.48042988627704974
0.48042985789525733
0.48042982951346486
0.4804298011316724
0.48042977274987997
0.48042973017719126
0.4804297017953988
0.48042965922271014
0.4804296166500215
0.4804295740773328
0.4804295315046441
0.4804294889319554
0.48042943216837053
0.48042937540478564
0.4804293186412007
0.4804292476867196
0.48042917673223845
0.4804291057777573
0.48042902063237997
0.4804289354870026
0.48042885034162525
0.48042875100535165
0.4804286516690781
0.4804285381419083
0.48042842461473845
0.48042829689667244
0.4804281549877102
0.4804280130787479
0.4804278569788894
0.48042768668813474
0.48042751639738
0.48042733191572906
0.4804271190522857
0.48042690618884226
0.48042667913450265
0.4804264236983706
0.4804261682622385
0.480425884444314
0.48042557224459703
0.48042524585398383
0.4804249052724744
0.48177107347973785
0.48177107347973785
0.48177107347973785
0.48177091756020896
0.48177091756020896
0.48177091756020896
0.48177091756020896
0.48177076164068006
0.48177076164068006
0.48177076164068006
0.48177060572115116
0.48177060572115116
0.48177060572115116
0.48177044980162226
0.48177044980162226
0.4817702938820933
0.4817702938820933
0.4817701379625644
0.4817701379625644
0.4817699820430355
0.4817699820430355
0.4817698261235066
0.4817696702039777
0.4817695142844488
0.4817695142844488
0.4817693583649199
0.48176920244539095
0.48176904652586205
0.48176889060633316
0.48176873468680426
0.48176842284774646
0.48176826692821756
0.48176795508915976
0.4817677991696308
0.481767487330573
0.4817673314110441
0.4817670195719863
0.48176670773292846
0.48176639589387066
0.48176592813528396
0.48176561629622616
0.4817651485376394
0.48322602197057385
0.48322602197057385
0.48322602197057385
0.48322602197057385
0.4832258519602337
0.4832258519602337
0.4832258519602337
0.4832258519602337
0.48322568194989357
0.48322568194989357
0.48322568194989357
0.48322551193955343
0.48322551193955343
0.48322551193955343
0.48322534192921335
0.48322534192921335
0.4832251719188732
0.4832251719188732
0.48322500190853307
0.48322483189819293
0.48322483189819293
0.4832246618878528
0.48322449187751265
0.48322432186717257
0.48322415185683243
0.4832239818464923
0.48322381183615215
0.483223641825812
0.48322347181547187
0.4832233018051318
0.48322313179479165
0.48322279177411137
0.48322262176377123
0.48322228174309095
0.48322194172241073
0.4832217717120706
0.4832214316913903
0.48322092166036995
0.4832205816396897
0.4832202416190094
0.48321973158798903
0.4832192215569686
0.4847942921426653
0.4847942921426653
0.48479410798693817
0.48479410798693817
0.48479410798693817
0.48479410798693817
0.48479392383121106
0.48479392383121106
0.48479392383121106
0.48479373967548395
0.48479373967548395
0.48479373967548395
0.48479355551975684
0.48479355551975684
0.4847933713640297
0.4847933713640297
0.4847931872083026
0.4847931872083026
0.4847930030525755
0.4847928188968484
0.4847928188968484
0.4847926347411213
0.48479245058539416
0.48479226642966705
0.48479208227393994
0.4847918981182128
0.4847917139624857
0.4847915298067586
0.4847913456510315
0.4847911614953044
0.48479079318385015
0.48479060902812304
0.4847902407166688
0.4847898724052146
0.4847896882494875
0.48478931993803326
0.4847887674708519
0.4847883991593977
0.4847880308479435
0.48478747838076214
0.4847871100693079
0.4847865576021266
0.4864736309702239
0.4864736309702239
0.4864736309702239
0.4864736309702239
0.48647343274798266
0.48647343274798266
0.48647343274798266
0.48647343274798266
0.4864732345257415
0.4864732345257415
0.48647303630350025
0.48647303630350025
0.48647303630350025
0.486472838081259
0.486472838081259
0.48647263985901784
0.48647263985901784
0.4864724416367766
0.4864722434145354
0.4864722434145354
0.4864720451922942
0.48647184697005297
0.48647164874781174
0.48647145052557056
0.4864712523033293
0.4864710540810881
0.4864708558588469
0.4864706576366057
0.48647045941436445
0.48647006296988204
0.4864698647476408
0.4864694683031584
0.48646927008091717
0.48646887363643476
0.48646847719195235
0.48646808074746994
0.4864676843029875
0.48646708963626384
0.48646669319178143
0.4864660985250578
0.48646550385833415
0.4864649091916105
0.48826282363575224
0.48826282363575224
0.48826282363575224
0.48826282363575224
0.4882626113946294
0.4882626113946294
0.4882626113946294
0.48826239915350655
0.48826239915350655
0.48826239915350655
0.4882621869123837
0.4882621869123837
0.4882621869123837
0.48826197467126087
0.48826197467126087
0.488261762430138
0.48826155018901524
0.48826155018901524
0.4882613379478924
0.48826112570676955
0.48826112570676955
0.4882609134656467
0.48826070122452386
0.488260488983401
0.4882602767422782
0.48826006450115533
0.4882598522600325
0.4882594277777868
0.488259215536664
0.48825900329554117
0.4882585788132955
0.48825836657217264
0.48825794208992696
0.48825751760768127
0.4882570931254356
0.48825666864318995
0.48825624416094426
0.48825560743757573
0.48825518295533005
0.4882545462319615
0.48825390950859304
0.4882532727852245
0.490161724069791
0.490161724069791
0.490161724069791
0.4901614976868113
0.4901614976868113
0.4901614976868113
0.4901612713038315
0.4901612713038315
0.4901612713038315
0.49016104492085183
0.49016104492085183
0.4901608185378721
0.4901608185378721
0.4901608185378721
0.4901605921548923
0.4901603657719126
0.4901603657719126
0.4901601393889329
0.49015991300595313
0.49015991300595313
0.4901596866229734
0.4901594602399936
0.49015923385701393
0.4901590074740342
0.49015878109105443
0.4901585547080747
0.490158328325095
0.49015810194211523
0.49015764917615573
0.49015742279317603
0.49015697002721653
0.4901567436442368
0.49015629087827733
0.49015583811231783
0.4901553853463584
0.4901549325803989
0.4901542534314597
0.4901538006655002
0.490153121516561
0.4901524423676218
0.4901517632186826
0.49015108406974334
0.49217029934726725
0.49217029934726725
0.49217029934726725
0.49217029934726725
0.49217005865520286
0.49217005865520286
0.49217005865520286
0.4921698179631384
0.4921698179631384
0.4921698179631384
0.492169577271074
0.492169577271074
0.49216933657900963
0.49216933657900963
0.4921690958869452
0.4921690958869452
0.4921688551948808
0.4921686145028164
0.4921686145028164
0.492168373810752
0.49216813311868757
0.4921678924266232
0.4921676517345588
0.49216741104249434
0.49216717035042995
0.49216692965836556
0.49216668896630117
0.4921664482742367
0.49216596689010794
0.4921657261980435
0.4921652448139147
0.49216500412185027
0.4921645227377215
0.49216404135359265
0.49216355996946387
0.49216283789327064
0.4921623565091418
0.492161875125013
0.4921611530488198
0.4921604309726266
0.49215970889643335
0.49215874612817573
0.49428560874139077
0.49428560874139077
0.49428535400760054
0.49428535400760054
0.49428535400760054
0.49428535400760054
0.4942850992738103
0.4942850992738103
0.4942850992738103
0.4942848445400201
0.4942848445400201
0.4942845898062298
0.4942845898062298
0.4942843350724396
0.4942843350724396
0.49428408033864935
0.49428408033864935
0.4942838256048591
0.4942835708710689
0.49428331613727866
0.49428331613727866
0.4942830614034884
0.49428280666969815
0.4942825519359079
0.4942822972021177
0.49428178773453724
0.494281533000747
0.4942812782669567
0.49428076879937627
0.49428051406558604
0.4942800045980056
0.49427974986421536
0.49427924039663484
0.4942787309290544
0.49427822146147393
0.4942774572601032
0.49427694779252274
0.494276183591152
0.49427567412357154
0.49427490992220086
0.4942738909870399
0.4942731267856692
0.4965077358949193
0.4965074669373844
0.4965074669373844
0.4965074669373844
0.4965074669373844
0.4965071979798495
0.4965071979798495
0.4965071979798495
0.4965069290223145
0.4965069290223145
0.4965066600647796
0.4965066600647796
0.4965063911072447
0.4965063911072447
0.4965061221497098
0.4965061221497098
0.49650585319217483
0.4965055842346399
0.4965055842346399
0.496505315277105
0.4965050463195701
0.4965047773620352
0.4965045084045002
0.4965042394469653
0.4965039704894304
0.4965037015318955
0.4965034325743606
0.4965028946592907
0.4965026257017558
0.4965020877866859
0.496501818829151
0.4965012809140812
0.4965007429990113
0.4965002050839415
0.4964996671688716
0.4964991292538018
0.496498322381197
0.4964977844661272
0.4964969775935224
0.4964961707209177
0.4964953638483129
0.4964942880181732
0.49883685722397586
0.49883685722397586
0.4988365738758823
0.4988365738758823
0.4988365738758823
0.4988362905277887
0.4988362905277887
0.4988362905277887
0.4988360071796952
0.4988360071796952
0.4988360071796952
0.49883572383160163
0.49883572383160163
0.4988354404835081
0.4988354404835081
0.4988351571354145
0.49883487378732094
0.49883487378732094
0.4988345904392274
0.4988343070911338
0.49883402374304026
0.4988337403949467
0.49883345704685317
0.49883317369875957
0.498832890350666
0.4988326070025725
0.4988323236544789
0.4988317569582918
0.49883147361019825
0.4988309069140111
0.49883062356591756
0.4988300568697304
0.49882949017354333
0.4988289234773562
0.4988283567811691
0.49882779008498196
0.49882694004070127
0.4988260899964206
0.4988255233002335
0.4988246732559528
0.4988235398635786
0.4988226898192979
0.5012701155159125
0.5012698180152043
0.5012698180152043
0.5012698180152043
0.5012698180152043
0.5012695205144962
0.5012695205144962
0.5012695205144962
0.5012692230137881
0.5012692230137881
0.5012689255130799
0.5012689255130799
0.5012686280123717
0.5012686280123717
0.5012683305116636
0.5012683305116636
0.5012680330109555
0.5012677355102473
0.5012677355102473
0.5012674380095392
0.501267140508831
0.5012668430081229
0.5012665455074148
0.5012662480067066
0.5012659505059984
0.5012656530052902
0.5012653555045822
0.5012647605031658
0.5012644630024577
0.5012638680010414
0.5012635705003332
0.501262975498917
0.5012623804975007
0.5012617854960844
0.5012611904946681
0.5012602979925437
0.5012597029911273
0.5012588104890029
0.5012579179868785
0.501257025484754
0.5012561329826296
0.5012552404805052
0.5038088012371441
0.5038088012371441
0.5038088012371441
0.5038088012371441
0.5038084892443063
0.5038084892443063
0.5038084892443063
0.5038081772514685
0.5038081772514685
0.5038081772514685
0.5038078652586306
0.5038078652586306
0.5038075532657929
0.5038075532657929
0.5038072412729551
0.5038069292801173
0.5038069292801173
0.5038066172872795
0.5038063052944417
0.5038063052944417
0.5038059933016038
0.503805681308766
0.5038053693159282
0.5038050573230904
0.5038047453302527
0.5038044333374149
0.5038038093517392
0.5038034973589014
0.5038028733732258
0.503802561380388
0.5038019373947124
0.5038016254018746
0.503801001416199
0.5038003774305233
0.5037994414520099
0.5037988174663343
0.5037981934806587
0.5037972575021452
0.5037963215236319
0.5037953855451184
0.503794449566605
0.5037932015952538
0.5064511285995291
0.5064511285995291
0.5064511285995291
0.5064508022654101
0.5064508022654101
0.5064508022654101
0.5064508022654101
0.5064504759312909
0.5064504759312909
0.5064501495971718
0.5064501495971718
0.5064498232630527
0.5064498232630527
0.5064494969289336
0.5064494969289336
0.5064491705948145
0.5064491705948145
0.5064488442606954
0.5064485179265763
0.5064481915924572
0.5064481915924572
0.5064478652583381
0.506447538924219
0.5064472125900998
0.5064468862559808
0.5064462335877425
0.5064459072536235
0.5064455809195043
0.5064449282512662
0.506444601917147
0.5064439492489088
0.5064432965806707
0.5064429702465515
0.5064423175783133
0.506441338575956
0.5064406859077178
0.5064400332394796
0.5064390542371223
0.5064380752347649
0.5064370962324076
0.5064361172300503
0.506434811893574
0.509196353048494
0.509196353048494
0.509196353048494
0.509196353048494
0.5091960122808117
0.5091960122808117
0.5091960122808117
0.5091956715131293
0.5091956715131293
0.509195330745447
0.509195330745447
0.509195330745447
0.5091949899777646
0.5091949899777646
0.5091946492100823
0.5091943084423999
0.5091943084423999
0.5091939676747176
0.5091936269070352
0.5091936269070352
0.5091932861393529
0.5091929453716705
0.5091926046039882
0.5091922638363059
0.5091919230686235
0.5091915823009412
0.5091909007655765
0.5091905599978941
0.5091902192302118
0.5091895376948471
0.5091888561594824
0.5091885153918001
0.5091878338564354
0.5091871523210707
0.509186470785706
0.509185448482659
0.5091847669472943
0.5091837446442472
0.5091830631088825
0.5091820408058355
0.5091806777351061
0.5091796554320591
0.5120437327402501
0.5120437327402501
0.5120433775282127
0.5120433775282127
0.5120433775282127
0.5120430223161753
0.5120430223161753
0.5120430223161753
0.5120426671041378
0.5120426671041378
0.5120426671041378
0.5120423118921005
0.5120423118921005
0.5120419566800631
0.5120419566800631
0.5120416014680257
0.5120412462559882
0.5120412462559882
0.5120408910439509
0.5120405358319136
0.5120401806198761
0.5120401806198761
0.5120398254078388
0.5120394701958013
0.512039114983764
0.5120384045596892
0.5120380493476517
0.5120376941356144
0.5120369837115396
0.5120366284995022
0.5120359180754274
0.51203556286339
0.5120348524393152
0.5120341420152404
0.5120334315911657
0.5120327211670909
0.5120316555309786
0.5120309451069038
0.5120298794707917
0.5120288138346795
0.5120277481985673
0.5120263273504178
0.5149925185000946
0.5149925185000946
0.5149925185000946
0.5149921487463943
0.5149921487463943
0.5149921487463943
0.5149917789926941
0.5149917789926941
0.5149917789926941
0.5149914092389938
0.5149914092389938
0.5149914092389938
0.5149910394852935
0.5149910394852935
0.5149906697315931
0.5149902999778929
0.5149902999778929
0.5149899302241926
0.5149895604704923
0.5149895604704923
0.514989190716792
0.5149888209630917
0.5149884512093914
0.5149880814556911
0.5149877117019909
0.5149873419482905
0.5149869721945902
0.5149862326871897
0.5149858629334894
0.514985493179789
0.5149847536723885
0.5149840141649878
0.5149836444112876
0.514982904903887
0.5149821653964864
0.5149810561353855
0.5149803166279849
0.5149795771205844
0.5149784678594834
0.5149773585983826
0.5149762493372817
0.5149751400761808
0.5180430737030132
0.5180430737030132
0.5180430737030132
0.5180430737030132
0.5180426892600134
0.5180426892600134
0.5180426892600134
0.5180423048170137
0.5180423048170137
0.5180423048170137
0.518041920374014
0.518041920374014
0.5180415359310142
0.5180415359310142
0.5180411514880144
0.5180411514880144
0.5180407670450148
0.5180407670450148
0.518040382602015
0.5180399981590152
0.5180396137160155
0.5180392292730158
0.5180392292730158
0.518038844830016
0.5180384603870163
0.5180376915010169
0.5180373070580171
0.5180369226150173
0.5180365381720177
0.5180357692860181
0.5180353848430184
0.5180346159570189
0.5180338470710195
0.51803307818502
0.5180323092990206
0.518031540413021
0.5180307715270216
0.5180300026410221
0.5180288493120229
0.5180276959830237
0.5180265426540245
0.5180253893250253
0.5211946550744377
0.5211942559379925
0.5211942559379925
0.5211942559379925
0.5211942559379925
0.5211938568015473
0.5211938568015473
0.5211938568015473
0.5211934576651021
0.5211934576651021
0.5211934576651021
0.5211930585286568
0.5211930585286568
0.5211926593922117
0.5211926593922117
0.5211922602557665
0.5211922602557665
0.5211918611193213
0.521191461982876
0.521191461982876
0.5211910628464308
0.5211906637099856
0.5211902645735403
0.5211898654370951
0.52118946630065
0.5211890671642048
0.5211886680277595
0.5211882688913143
0.5211878697548691
0.5211870714819786
0.5211866723455334
0.5211858740726429
0.5211850757997526
0.5211846766633074
0.5211838783904169
0.5211826809810812
0.5211818827081909
0.5211810844353004
0.5211798870259647
0.5211790887530743
0.5211778913437387
0.521176693934403
0.5244441520870299
0.5244441520870299
0.5244441520870299
0.5244437384018596
0.5244437384018596
0.5244437384018596
0.5244437384018596
0.5244433247166893
0.5244433247166893
0.5244433247166893
0.5244429110315191
0.5244429110315191
0.5244424973463487
0.5244424973463487
0.5244424973463487
0.5244420836611785
0.5244416699760082
0.5244416699760082
0.5244412562908379
0.5244412562908379
0.5244408426056676
0.5244404289204974
0.524440015235327
0.5244396015501568
0.5244391878649864
0.5244387741798162
0.5244383604946459
0.5244379468094756
0.5244375331243053
0.5244367057539647
0.5244362920687945
0.5244354646984539
0.5244350510132836
0.524434223642943
0.5244333962726024
0.5244325689022619
0.5244317415319213
0.5244309141615807
0.5244296731060699
0.5244288457357293
0.5244276046802184
0.5244263636247076
0.527794179859384
0.527794179859384
0.527794179859384
0.527794179859384
0.5277937512478471
0.5277937512478471
0.5277937512478471
0.5277937512478471
0.5277933226363103
0.5277933226363103
0.5277933226363103
0.5277928940247734
0.5277928940247734
0.5277924654132364
0.5277924654132364
0.5277920368016996
0.5277920368016996
0.5277916081901627
0.5277916081901627
0.5277911795786258
0.5277907509670889
0.527790322355552
0.527790322355552
0.5277898937440151
0.5277894651324783
0.5277890365209413
0.5277886079094044
0.5277881792978676
0.5277877506863307
0.5277868934632569
0.52778646485172
0.5277856076286462
0.5277851790171093
0.5277843217940356
0.5277834645709617
0.527782607347888
0.5277817501248141
0.5277808929017404
0.5277800356786666
0.5277787498440559
0.5277774640094453
0.5277766067863715
0.5312427028657929
0.5312427028657929
0.5312427028657929
0.5312427028657929
0.5312422594399209
0.5312422594399209
0.5312422594399209
0.5312422594399209
0.531241816014049
0.531241816014049
0.531241816014049
0.5312413725881769
0.5312413725881769
0.5312409291623049
0.5312409291623049
0.531240485736433
0.531240485736433
0.531240042310561
0.531240042310561
0.531239598884689
0.5312391554588171
0.5312391554588171
0.531238712032945
0.531238268607073
0.5312378251812011
0.5312373817553291
0.5312369383294571
0.5312364949035852
0.5312360514777131
0.5312356080518411
0.5312351646259692
0.5312342777742253
0.5312338343483533
0.5312329474966093
0.5312320606448653
0.5312311737931213
0.5312302869413774
0.5312294000896334
0.5312285132378894
0.5312276263861455
0.5312262961085296
0.5312249658309136
0.5347887604309022
0.5347887604309022
0.5347887604309022
0.5347883021655151
0.5347883021655151
0.5347883021655151
0.5347883021655151
0.534787843900128
0.534787843900128
0.534787843900128
0.534787843900128
0.534787385634741
0.534787385634741
0.534786927369354
0.534786927369354
0.5347864691039669
0.5347864691039669
0.5347860108385798
0.5347860108385798
0.5347855525731927
0.5347855525731927
0.5347850943078056
0.5347846360424185
0.5347846360424185
0.5347841777770316
0.5347837195116445
0.5347832612462574
0.5347828029808703
0.5347823447154832
0.5347818864500962
0.5347809699193221
0.534780511653935
0.534780053388548
0.5347791368577738
0.5347782203269997
0.5347777620616126
0.5347768455308385
0.5347759290000643
0.5347750124692903
0.534773637673129
0.5347727211423549
0.5347713463461937
0.5384325522224946
0.5384325522224946
0.5384325522224946
0.5384320789413164
0.5384320789413164
0.5384320789413164
0.5384320789413164
0.538431605660138
0.538431605660138
0.538431605660138
0.538431605660138
0.5384311323789598
0.5384311323789598
0.5384311323789598
0.5384306590977815
0.5384306590977815
0.5384301858166033
0.5384301858166033
0.5384297125354249
0.5384297125354249
0.5384292392542467
0.5384287659730684
0.5384287659730684
0.5384282926918901
0.5384278194107118
0.5384273461295336
0.5384268728483552
0.5384268728483552
0.538426399567177
0.5384254530048205
0.5384249797236421
0.5384245064424639
0.5384240331612855
0.538423086598929
0.5384226133177508
0.5384216667553942
0.5384207201930375
0.538419773630681
0.5384188270683244
0.538417880505968
0.5384169339436113
0.5384155141000765
0.542171726388598
0.542171726388598
0.542171726388598
0.542171726388598
0.542171726388598
0.5421712382457565
0.5421712382457565
0.5421712382457565
0.5421712382457565
0.5421707501029149
0.5421707501029149
0.5421707501029149
0.5421702619600735
0.5421702619600735
0.5421702619600735
0.5421697738172319
0.5421697738172319
0.5421692856743904
0.5421692856743904
0.5421687975315488
0.5421687975315488
0.5421683093887073
0.5421683093887073
0.5421678212458658
0.5421673331030242
0.5421668449601827
0.5421668449601827
0.5421663568173412
0.5421658686744997
0.5421653805316582
0.5421648923888166
0.5421639161031335
0.542163427960292
0.5421629398174505
0.5421619635317675
0.5421614753889259
0.5421604991032428
0.5421595228175599
0.5421590346747183
0.5421580583890352
0.5421565939605106
0.5421556176748276
0.5460088983519354
0.5460088983519354
0.5460088983519354
0.5460088983519354
0.5460083949181959
0.5460083949181959
0.5460083949181959
0.5460083949181959
0.5460083949181959
0.5460078914844562
0.5460078914844562
0.5460078914844562
0.5460078914844562
0.5460073880507166
0.5460073880507166
0.5460073880507166
0.546006884616977
0.546006884616977
0.5460063811832374
0.5460063811832374
0.5460058777494977
0.5460058777494977
0.5460053743157581
0.5460048708820185
0.5460048708820185
0.5460043674482788
0.5460038640145393
0.5460033605807997
0.5460033605807997
0.5460028571470601
0.5460023537133205
0.5460013468458412
0.5460008434121016
0.5460003399783621
0.5459998365446224
0.5459988296771432
0.5459983262434036
0.5459973193759243
0.545996312508445
0.5459958090747055
0.5459948022072263
0.5459932919060074
0.549940252700741
0.549940252700741
0.549940252700741
0.5499397343259587
0.5499397343259587
0.5499397343259587
0.5499397343259587
0.5499397343259587
0.5499392159511765
0.5499392159511765
0.5499392159511765
0.5499392159511765
0.5499386975763941
0.5499386975763941
0.5499386975763941
0.5499381792016118
0.5499381792016118
0.5499381792016118
0.5499376608268296