/*--------------------------------*- C++ -*----------------------------------*\
| =========                 |                                                 |
| \\      /  F ield         | OpenFOAM: The Open Source CFD Toolbox           |
|  \\    /   O peration     | Version:  v2012                                 |
|   \\  /    A nd           | Website:  www.openfoam.com                      |
|    \\/     M anipulation  |                                                 |
\*---------------------------------------------------------------------------*/
FoamFile
{
    version     2.0;
    format      ascii;
    class       volScalarField;
    location    "0";
    object      T;
}
// * * * * * * * * * * * * * * * * * * * * * * * * * * * * * * * * * * * * * //

dimensions      [0 0 0 1 0 0 0];


internalField   uniform 270;
8988
(
263.32768786018494
263.32768786018494
263.32768786018494
263.32768786018494
263.32768786018494
263.32768786018494
263.32768786018494
263.32768786018494
263.32768786018494
263.32768786018494
263.32768786018494
263.32768786018494
263.32768786018494
263.32768786018494
263.32768786018494
263.32768786018494
263.32768786018494
263.32768786018494
263.32768786018494
263.32768786018494
263.32768786018494
263.32768786018494
263.32768786018494
263.32768786018494
263.32768786018494
263.32768786018494
263.32768786018494
263.32768786018494
263.32768786018494
263.32768786018494
263.32768786018494
263.32768786018494
263.32768786018494
263.32768786018494
263.32768786018494
263.32768786018494
263.32768786018494
263.32768786018494
263.32768786018494
263.32768786018494
263.32768786018494
263.32768786018494
263.32249535895556
263.32249541636304
263.32249541636304
263.32249541636304
263.3224954737705
263.3224954737705
263.3224954737705
263.322495531178
263.322495531178
263.3224955885855
263.3224955885855
263.322495645993
263.322495645993
263.3224957034005
263.3224957034005
263.32249576080795
263.32249581821543
263.3224958756229
263.3224959330304
263.3224959330304
263.3224959904379
263.3224960478454
263.32249616266034
263.3224962200678
263.3224962774753
263.3224963348828
263.3224964496978
263.32249650710526
263.3224966219202
263.3224967367352
263.32249685155017
263.3224969663651
263.3224970811801
263.3224971959951
263.3224973682175
263.32249748303246
263.32249765525495
263.3224978274774
263.32249799969986
263.32249822932977
263.32249840155225
263.32249863118216
263.31216924351077
263.31216924351077
263.31216924351077
263.31216935825046
263.3121694729902
263.3121694729902
263.3121695877299
263.3121695877299
263.31216970246965
263.31216981720934
263.3121699319491
263.3121700466888
263.3121700466888
263.31217016142847
263.3121703909079
263.31217050564766
263.31217062038735
263.3121707351271
263.3121709646065
263.31217107934623
263.31217130882567
263.31217142356536
263.3121716530448
263.31217188252424
263.3121721120037
263.3121724562228
263.31217268570225
263.3121729151817
263.3121732594008
263.31217360361995
263.3121739478391
263.31217440679796
263.3121747510171
263.312175209976
263.31217566893486
263.3121761278937
263.3121767015923
263.3121772752909
263.31217796372914
263.3121785374277
263.31217922586603
263.31218002904404
263.29675518534526
263.29675535747896
263.29675535747896
263.2967555296127
263.2967557017464
263.29675587388016
263.29675604601385
263.29675621814755
263.29675621814755
263.296756562415
263.29675673454875
263.29675690668245
263.2967570788162
263.2967574230836
263.29675759521734
263.2967579394848
263.2967581116185
263.29675845588594
263.2967588001534
263.29675914442083
263.2967594886882
263.2967600050894
263.2967603493568
263.296760865758
263.29676138215916
263.2967618985603
263.29676241496145
263.29676310349635
263.29676379203124
263.2967644805661
263.296765169101
263.29676602976957
263.29676689043816
263.29676775110676
263.2967687839091
263.2967698167114
263.29677084951373
263.2967720544498
263.2967734315195
263.29677480858925
263.29677618565904
263.2967777348625
263.276322716463
263.2763229457888
263.2763231751146
263.2763234044404
263.2763236337662
263.27632386309193
263.2763240924177
263.2763243217435
263.2763245510693
263.2763250097209
263.2763252390467
263.27632569769827
263.276325927024
263.2763263856756
263.2763268443272
263.27632730297876
263.27632776163034
263.27632822028187
263.27632890825925
263.2763295962366
263.2763300548882
263.2763307428655
263.2763316601687
263.276332348146
263.2763332654492
263.27633418275235
263.27633510005546
263.27633601735863
263.27633716398753
263.2763383106165
263.2763396865712
263.2763410625259
263.27634243848064
263.2763440437611
263.2763456490416
263.2763474836479
263.27634931825423
263.2763513821863
263.2763536754441
263.276355968702
263.27635826195984
263.2763610138693
263.2509296253558
263.2509299117947
263.2509301982335
263.2509304846724
263.25093077111126
263.2509310575501
263.25093163042783
263.25093191686665
263.2509322033055
263.2509327761832
263.250933349061
263.25093392193867
263.25093449481636
263.2509350676941
263.2509356405718
263.2509364998884
263.2509370727661
263.25093793208265
263.2509387913992
263.2509396507158
263.25094051003236
263.2509416557878
263.2509428015432
263.25094394729865
263.2509453794929
263.25094652524837
263.2509482438815
263.2509496760758
263.2509513947089
263.25095311334206
263.2509551184141
263.2509571234861
263.25095941499694
263.2509617065078
263.2509639980186
263.2509668624072
263.2509697267958
263.25097259118434
263.2509760284506
263.2509794657169
263.2509831894221
263.25098719956605
263.2206225663226
263.2206229099128
263.220623253503
263.22062359709315
263.2206239406833
263.2206246278637
263.2206249714539
263.2206256586342
263.2206263458146
263.22062703299497
263.22062772017534
263.22062840735566
263.22062909453604
263.22063012530657
263.22063081248695
263.2206318432575
263.220632874028
263.22063424838876
263.2206352791593
263.22063665352
263.22063802788074
263.22063940224143
263.22064112019234
263.2206424945531
263.22064455609416
263.22064627404507
263.22064833558613
263.2206507407174
263.2206528022585
263.2206555509799
263.2206579561112
263.2206610484228
263.2206641407344
263.2206672330461
263.22067066894783
263.22067444843987
263.220678571522
263.2206826946042
263.2206875048667
263.2206923151292
263.22069746898194
263.2207029664248
263.18540040814634
263.18540080946985
263.1854012107934
263.1854020134404
263.1854024147639
263.1854032174109
263.18540402005794
263.185404822705
263.185405625352
263.18540642799906
263.1854072306461
263.1854084346166
263.1854092372636
263.1854104412342
263.18541164520474
263.18541284917524
263.1854144544693
263.18541565843987
263.1854172637339
263.1854192703515
263.18542087564555
263.1854228822631
263.1854248888807
263.18542729682173
263.18542970476284
263.1854321127039
263.1854349219685
263.1854377312331
263.18544094182124
263.18544415240933
263.18544776432094
263.18545137623255
263.18545538946773
263.1854598040264
263.18546461990854
263.1854694357907
263.1854746529964
263.18548027152553
263.1854866927018
263.185493113878
263.1854999363777
263.1855075615245
263.14536319770417
263.14536411467435
263.14536457315944
263.1453654901296
263.1453659486147
263.1453668655849
263.14536778255507
263.14536869952525
263.1453700749805
263.1453709919507
263.14537236740597
263.14537328437615
263.1453746598314
263.1453760352867
263.14537786922705
263.1453792446823
263.1453810786227
263.14538291256304
263.1453852049885
263.14538703892885
263.1453893313543
263.14539208226483
263.1453948331754
263.1453975840859
263.1454003349964
263.145403544392
263.14540721227274
263.14541088015346
263.1454145480342
263.1454191328851
263.145423717736
263.1454283025869
263.14543334592287
263.14543884774395
263.1454448080501
263.1454512268414
263.1454581041177
263.14546543987916
263.14547277564054
263.14548102837216
263.14549019807396
263.14549936777576
263.10052789858474
263.1005284146092
263.1005294466581
263.1005304787069
263.1005315107558
263.1005325428047
263.10053357485356
263.1005346069024
263.1005361549757
263.1005371870246
263.10053873509787
263.1005402831712
263.1005418312445
263.10054389534224
263.10054544341557
263.1005475075133
263.1005500876355
263.1005521517332
263.1005547318554
263.1005573119776
263.1005604081242
263.1005629882464
263.10056660041744
263.1005702125885
263.1005738247595
263.10057743693056
263.1005820811505
263.1005867253704
263.10059136959035
263.1005965298347
263.1006022061035
263.1006078823723
263.10061459068993
263.1006212990076
263.1006285233497
263.10063626371624
263.1006445201072
263.10065380854707
263.1006630969869
263.1006734174756
263.10068425398873
263.1006961225508
263.0508642546803
263.0508648291585
263.050865978115
263.05086712707146
263.050868276028
263.05086942498446
263.05087114841916
263.05087229737563
263.05087402081034
263.0508757442451
263.0508774676798
263.0508791911145
263.0508809145493
263.0508832124622
263.05088551037517
263.05088780828817
263.05089068067934
263.0508935530705
263.05089642546176
263.0508998723312
263.05090331920064
263.0509067660701
263.05091078741776
263.05091480876547
263.05091940459135
263.0509240004173
263.0509291707215
263.0509349155039
263.0509406602863
263.05094697954695
263.05095387328583
263.0509607670247
263.05096823524184
263.05097685241543
263.0509854695891
263.0509946612409
263.05100500184926
263.05101534245756
263.0510268320224
263.0510394705437
263.0510526835432
263.051066471021
262.9964469100731
262.9964469100731
262.9964469100731
262.99645323642073
262.99645323642073
262.99645323642073
262.99645323642073
262.9964595627684
262.9964595627684
262.9964595627684
262.99646588911605
262.99646588911605
262.99646588911605
262.9964722154637
262.9964722154637
262.9964785418113
262.9964785418113
262.996484868159
262.996484868159
262.99649119450663
262.99649119450663
262.9964975208543
262.99650384720195
262.9965101735496
262.9965101735496
262.99651649989727
262.9965228262449
262.9965291525926
262.99653547894025
262.99654180528785
262.99655445798317
262.9965607843308
262.99657343702614
262.9965797633738
262.9965924160691
262.9965987424167
262.99661139511204
262.99662404780736
262.9966367005027
262.99665567954565
262.9966683322409
262.9966873112839
262.9372672066486
262.9372672066486
262.9372672066486
262.9372672066486
262.937274121781
262.937274121781
262.937274121781
262.937274121781
262.9372810369135
262.9372810369135
262.9372810369135
262.9372879520459
262.9372879520459
262.9372879520459
262.93729486717837
262.93729486717837
262.9373017823108
262.9373017823108
262.9373086974432
262.9373156125757
262.9373156125757
262.9373225277081
262.93732944284056
262.937336357973
262.93734327310545
262.9373501882379
262.9373571033703
262.93736401850276
262.9373709336352
262.93737784876765
262.93738476390007
262.93739859416496
262.9374055092974
262.93741933956227
262.93743316982716
262.9374400849596
262.93745391522447
262.9374746606218
262.93748849088666
262.93750232115156
262.93752306654886
262.93754381194617
262.8733082864512
262.8733082864512
262.87331579689277
262.87331579689277
262.87331579689277
262.87331579689277
262.8733233073343
262.8733233073343
262.8733233073343
262.87333081777587
262.87333081777587
262.87333081777587
262.8733383282174
262.8733383282174
262.87334583865896
262.87334583865896
262.8733533491005
262.8733533491005
262.87336085954206
262.87336836998355
262.87336836998355
262.8733758804251
262.87338339086665
262.8733909013082
262.87339841174975
262.8734059221913
262.87341343263284
262.8734209430744
262.87342845351594
262.8734359639575
262.8734509848406
262.87345849528214
262.87347351616523
262.8734885370483
262.8734960474898
262.8735110683729
262.87353359969757
262.87354862058066
262.87356364146376
262.8735861727884
262.87360119367145
262.8736237249961
262.8046245357598
262.8046245357598
262.8046245357598
262.8046245357598
262.80463264290694
262.80463264290694
262.80463264290694
262.80463264290694
262.8046407500541
262.8046407500541
262.80464885720124
262.80464885720124
262.80464885720124
262.8046569643484
262.8046569643484
262.80466507149555
262.80466507149555
262.8046731786427
262.80468128578985
262.80468128578985
262.804689392937
262.80469750008416
262.8047056072313
262.80471371437847
262.8047218215256
262.80472992867277
262.8047380358199
262.8047461429671
262.80475425011423
262.8047704644086
262.80477857155574
262.80479478585005
262.8048028929972
262.8048191072915
262.8048353215858
262.8048515358801
262.8048677501744
262.8048920716159
262.8049082859102
262.80493260735165
262.8049569287931
262.80498125023456
262.731226211009
262.731226211009
262.731226211009
262.731226211009
262.7312349178091
262.7312349178091
262.7312349178091
262.7312436246092
262.7312436246092
262.7312436246092
262.7312523314093
262.7312523314093
262.7312523314093
262.73126103820937
262.73126103820937
262.73126974500946
262.73127845180954
262.73127845180954
262.73128715860963
262.7312958654097
262.7312958654097
262.7313045722098
262.7313132790099
262.73132198581
262.7313306926101
262.73133939941016
262.73134810621025
262.7313655198104
262.7313742266105
262.7313829334106
262.7314003470108
262.73140905381086
262.73142646741104
262.7314438810112
262.7314612946114
262.7314787082116
262.7314961218118
262.73152224221207
262.73153965581224
262.7315657762125
262.73159189661277
262.73161801701303
262.65307767356614
262.65307767356614
262.65307767356614
262.65308699027304
262.65308699027304
262.65308699027304
262.65309630697993
262.65309630697993
262.65309630697993
262.6531056236868
262.6531056236868
262.6531149403937
262.6531149403937
262.6531149403937
262.6531242571006
262.6531335738075
262.6531335738075
262.6531428905144
262.6531522072213
262.6531522072213
262.6531615239282
262.6531708406351
262.653180157342
262.6531894740489
262.65319879075577
262.65320810746266
262.6532174241696
262.6532267408765
262.6532453742903
262.6532546909972
262.653273324411
262.65328264111787
262.65330127453166
262.65331990794544
262.65333854135923
262.653357174773
262.6533851248937
262.6534037583075
262.6534317084282
262.65345965854885
262.6534876086696
262.6535155587903
262.5701362715406
262.5701362715406
262.5701362715406
262.5701362715406
262.57014621059415
262.57014621059415
262.57014621059415
262.57015614964774
262.57015614964774
262.57015614964774
262.5701660887013
262.5701660887013
262.5701760277549
262.5701760277549
262.5701859668084
262.5701859668084
262.570195905862
262.57020584491556
262.57020584491556
262.57021578396916
262.5702257230227
262.5702356620763
262.57024560112984
262.57025554018344
262.570265479237
262.5702754182906
262.5702853573441
262.5702952963977
262.57031517450486
262.5703251135584
262.57034499166554
262.5703549307191
262.5703748088262
262.57039468693335
262.5704145650405
262.57044438220123
262.57046426030837
262.5704841384155
262.5705139555762
262.57054377273687
262.5705735898976
262.5706133461119
262.4824777065822
262.4824777065822
262.48248826276773
262.48248826276773
262.48248826276773
262.48248826276773
262.48249881895333
262.48249881895333
262.48249881895333
262.4825093751389
262.4825093751389
262.4825199313245
262.4825199313245
262.48253048751
262.48253048751
262.4825410436956
262.4825410436956
262.48255159988116
262.4825621560667
262.4825727122523
262.4825727122523
262.48258326843785
262.48259382462345
262.482604380809
262.4826149369946
262.48263604936574
262.4826466055513
262.4826571617368
262.48267827410797
262.48268883029357
262.4827099426647
262.48272049885026
262.4827416112214
262.48276272359254
262.4827838359637
262.4828155045204
262.4828366168915
262.4828682854482
262.48288939781935
262.48292106637604
262.4829632911183
262.482994959675
262.3900511439325
262.3900623308803
262.3900623308803
262.3900623308803
262.3900623308803
262.3900735178281
262.3900735178281
262.3900735178281
262.39008470477586
262.39008470477586
262.39009589172366
262.39009589172366
262.39010707867146
262.39010707867146
262.39011826561926
262.39011826561926
262.39012945256707
262.3901406395148
262.3901406395148
262.3901518264626
262.3901630134104
262.3901742003582
262.390185387306
262.3901965742538
262.39020776120157
262.39021894814937
262.39023013509717
262.3902525089928
262.3902636959405
262.3902860698361
262.3902972567839
262.39031963067947
262.3903420045751
262.3903643784707
262.3903867523662
262.39040912626183
262.3904426871052
262.3904650610008
262.39049862184413
262.39053218268754
262.3905657435309
262.39061049132204
262.292799614342
262.292799614342
262.29281144542836
262.29281144542836
262.29281144542836
262.29282327651464
262.29282327651464
262.29282327651464
262.292835107601
262.292835107601
262.292835107601
262.2928469386873
262.2928469386873
262.29285876977366
262.29285876977366
262.29287060085994
262.2928824319463
262.2928824319463
262.2928942630326
262.29290609411896
262.29291792520524
262.2929297562916
262.2929415873779
262.29295341846426
262.29296524955055
262.2929770806369
262.2929889117232
262.29301257389585
262.2930244049822
262.2930480671548
262.29305989824115
262.29308356041383
262.29310722258646
262.29313088475914
262.29315454693176
262.29317820910444
262.2932137023634
262.29324919562237
262.293272857795
262.293308351054
262.2933556753993
262.2933911686583
262.19079129228317
262.19080376426285
262.19080376426285
262.19080376426285
262.19080376426285
262.1908162362426
262.1908162362426
262.1908162362426
262.1908287082223
262.1908287082223
262.190841180202
262.190841180202
262.1908536521817
262.1908536521817
262.19086612416146
262.19086612416146
262.19087859614115
262.19089106812083
262.19089106812083
262.1909035401006
262.19091601208027
262.19092848406
262.1909409560397
262.19095342801944
262.1909658999991
262.1909783719788
262.19099084395856
262.191015787918
262.1910282598977
262.1910532038571
262.1910656758368
262.1910906197962
262.19111556375566
262.1911405077151
262.1911654516745
262.19120286761364
262.19122781157307
262.1912652275122
262.1913026434513
262.1913400593905
262.1913774753296
262.1914148912687
262.08391926539986
262.08391926539986
262.08391926539986
262.08391926539986
262.0839323994821
262.0839323994821
262.0839323994821
262.08394553356425
262.08394553356425
262.08394553356425
262.08395866764647
262.08395866764647
262.0839718017287
262.0839718017287
262.08398493581086
262.0839980698931
262.0839980698931
262.08401120397525
262.0840243380575
262.0840243380575
262.0840374721397
262.08405060622187
262.0840637403041
262.0840768743863
262.0840900084685
262.0841031425507
262.0841294107151
262.0841425447973
262.0841688129617
262.08418194704393
262.0842082152083
262.08422134929054
262.08424761745493
262.0842738856193
262.08431328786594
262.08433955603033
262.0843658241948
262.08440522644133
262.08444462868795
262.08448403093456
262.0845234331812
262.08457596951
261.972204012691
261.972204012691
261.972204012691
261.97221780980755
261.97221780980755
261.97221780980755
261.97221780980755
261.9722316069241
261.9722316069241
261.9722454040407
261.9722454040407
261.9722592011572
261.9722592011572
261.97227299827375
261.97227299827375
261.9722867953903
261.9722867953903
261.9723005925069
261.9723143896234
261.97232818673996
261.97232818673996
261.9723419838565
261.9723557809731
261.9723695780896
261.97238337520616
261.97241096943924
261.97242476655583
261.97243856367237
261.97246615790544
261.97247995502204
261.9725075492551
261.97253514348824
261.9725489406048
261.97257653483786
261.9726179261875
261.9726455204206
261.97267311465373
261.9727145060034
261.972755897353
261.9727972887027
261.97283868005235
261.97289386851855
261.8556210459693
261.8556210459693
261.8556210459693
261.8556210459693
261.85563551753916
261.85563551753916
261.85563551753916
261.855649989109
261.855649989109
261.8556644606789
261.8556644606789
261.8556644606789
261.85567893224874
261.85567893224874
261.8556934038186
261.8557078753884
261.8557078753884
261.85572234695826
261.8557368185281
261.8557368185281
261.855751290098
261.85576576166784
261.8557802332377
261.8557947048075
261.85580917637736
261.8558236479472
261.85585259108694
261.8558670626568
261.8558815342266
261.85591047736636
261.85593942050605
261.8559538920759
261.85598283521557
261.8560117783553
261.856040721495
261.8560841362046
261.85611307934425
261.85615649405383
261.8561854371935
261.85622885190304
261.85628673818246
261.85633015289204
261.73414443883087
261.73414443883087
261.73415959309824
261.73415959309824
261.73415959309824
261.73417474736556
261.73417474736556
261.73417474736556
261.73418990163293
261.73418990163293
261.73418990163293
261.7342050559003
261.7342050559003
261.7342202101677
261.7342202101677
261.734235364435
261.73425051870237
261.73425051870237
261.73426567296974
261.73428082723706
261.73429598150443
261.73429598150443
261.7343111357718
261.7343262900392
261.7343414443065
261.73437175284124
261.7343869071086
261.73440206137593
261.7344323699107
261.734447524178
261.73447783271274
261.7344929869801
261.7345232955148
261.7345536040495
261.73458391258424
261.73461422111893
261.73465968392105
261.73468999245574
261.7347354552578
261.73478091805987
261.73482638086193
261.73488699793137
261.60774733854123
261.60774733854123
261.60774733854123
261.6077631877074
261.6077631877074
261.6077631877074
261.6077790368736
261.6077790368736
261.6077790368736
261.60779488603976
261.60779488603976
261.60779488603976
261.60781073520593
261.60781073520593
261.6078265843721
261.60784243353834
261.60784243353834
261.6078582827045
261.6078741318707
261.6078741318707
261.60788998103686
261.60790583020304
261.6079216793692
261.6079375285354
261.60795337770156
261.60796922686774
261.6079850760339
261.6080167743663
261.6080326235325
261.60804847269867
261.608080171031
261.60811186936337
261.60812771852954
261.60815941686195
261.6081911151943
261.6082386626928
261.6082703610252
261.6083020593575
261.6083496068561
261.60839715435463
261.60844470185316
261.60849224935174
261.4763537032745
261.4763537032745
261.4763537032745
261.4763537032745
261.47637026201875
261.47637026201875
261.47637026201875
261.4763868207629
261.4763868207629
261.4763868207629
261.47640337950713
261.47640337950713
261.47641993825135
261.47641993825135
261.4764364969956
261.4764364969956
261.47645305573974
261.47645305573974
261.47646961448396
261.4764861732282
261.47650273197235
261.47651929071657
261.47651929071657
261.4765358494608
261.476552408205
261.4765855256934
261.4766020844376
261.4766186431818
261.476635201926
261.47666831941444
261.4766848781586
261.47671799564705
261.47675111313544
261.4767842306239
261.47681734811226
261.47685046560065
261.4768835830891
261.4769167005775
261.47696637681014
261.47701605304275
261.47706572927535
261.47711540550796
261.339933478754
261.3399507558848
261.3399507558848
261.3399507558848
261.3399507558848
261.3399680330155
261.3399680330155
261.3399680330155
261.3399853101463
261.3399853101463
261.3399853101463
261.34000258727707
261.34000258727707
261.34001986440785
261.34001986440785
261.3400371415386
261.3400371415386
261.34005441866935
261.34007169580013
261.34007169580013
261.3400889729309
261.34010625006164
261.3401235271924
261.3401408043232
261.340158081454
261.3401753585847
261.3401926357155
261.34020991284626
261.340227189977
261.34026174423855
261.3402790213693
261.34031357563083
261.3403481298924
261.3403654070231
261.3403999612847
261.34045179267696
261.34048634693846
261.3405209012
261.3405727325923
261.34060728685387
261.34065911824615
261.34071094963844
261.1985588356942
261.1985588356942
261.1985588356942
261.19857683373914
261.19857683373914
261.19857683373914
261.19857683373914
261.1985948317841
261.1985948317841
261.1985948317841
261.198612829829
261.198612829829
261.198630827874
261.198630827874
261.198630827874
261.19864882591895
261.1986668239639
261.1986668239639
261.19868482200883
261.19868482200883
261.19870282005377
261.1987208180987
261.19873881614365
261.19875681418864
261.1987748122336
261.1987928102785
261.19881080832346
261.1988288063684
261.19884680441334
261.19888280050327
261.1989007985482
261.1989367946381
261.198954792683
261.1989907887729
261.19902678486284
261.1990627809527
261.1990987770426
261.1991347731325
261.19918876726734
261.1992247633572
261.1992787574921
261.1993327516269
261.0520521149076
261.0520521149076
261.0520521149076
261.0520521149076
261.05207085937036
261.05207085937036
261.05207085937036
261.05207085937036
261.0520896038331
261.0520896038331
261.0520896038331
261.05210834829586
261.05210834829586
261.05212709275855
261.05212709275855
261.0521458372213
261.0521458372213
261.05216458168405
261.05216458168405
261.0521833261468
261.05220207060955
261.0522208150723
261.0522208150723
261.052239559535
261.05225830399775
261.0522770484605
261.05229579292325
261.052314537386
261.05233328184875
261.0523707707742
261.05238951523694
261.05242700416244
261.0524457486252
261.0524832375507
261.05252072647613
261.05255821540163
261.05259570432713
261.0526331932526
261.0526706821781
261.0527269155663
261.0527831489545
261.05282063788
260.9004367329066
260.9004367329066
260.9004367329066
260.9004367329066
260.9004562282624
260.9004562282624
260.9004562282624
260.9004562282624
260.9004757236182
260.9004757236182
260.9004757236182
260.90049521897396
260.90049521897396
260.90051471432974
260.90051471432974
260.9005342096856
260.9005342096856
260.9005537050414
260.9005537050414
260.90057320039716
260.90059269575295
260.90059269575295
260.90061219110873
260.9006316864645
260.9006511818203
260.9006706771761
260.9006901725319
260.9007096678877
260.9007291632435
260.9007486585993
260.9007681539551
260.90080714466666
260.90082664002244
260.900865630734
260.90090462144565
260.9009436121572
260.9009826028688
260.90102159358037
260.901060584292
260.90109957500357
260.90115806107093
260.9012165471383
260.74368889842555
260.74368889842555
260.74368889842555
260.7437091553181
260.7437091553181
260.7437091553181
260.7437091553181
260.74372941221066
260.74372941221066
260.74372941221066
260.74372941221066
260.7437496691032
260.7437496691032
260.7437699259957
260.7437699259957
260.74379018288823
260.74379018288823
260.7438104397808
260.7438104397808
260.74383069667334
260.74383069667334
260.74385095356587
260.7438712104584
260.7438712104584
260.743891467351
260.7439117242435
260.74393198113603
260.74395223802856
260.74397249492114
260.74399275181366
260.7440332655987
260.7440535224913
260.7440737793838
260.7441142931689
260.744154806954
260.7441750638465
260.7442155776316
260.7442560914167
260.7442966052018
260.7443573758794
260.74439788966447
260.7444586603421
260.5817326349923
260.5817326349923
260.5817326349923
260.58175367100523
260.58175367100523
260.58175367100523
260.58175367100523
260.58177470701816
260.58177470701816
260.58177470701816
260.58177470701816
260.581795743031
260.581795743031
260.581795743031
260.58181677904395
260.58181677904395
260.5818378150569
260.5818378150569
260.5818588510698
260.5818588510698
260.5818798870827
260.58190092309565
260.58190092309565
260.58192195910857
260.58194299512144
260.58196403113436
260.5819850671473
260.5819850671473
260.5820061031602
260.58204817518606
260.5820692111989
260.58209024721185
260.5821112832248
260.5821533552506
260.58217439126355
260.58221646328934
260.5822585353152
260.58230060734104
260.58234267936683
260.5823847513927
260.58242682341853
260.58248993145725
260.4146047891126
260.4146047891126
260.4146047891126
260.4146047891126
260.4146047891126
260.41462660736926
260.41462660736926
260.41462660736926
260.41462660736926
260.4146484256259
260.4146484256259
260.4146484256259
260.41467024388254
260.41467024388254
260.41467024388254
260.4146920621392
260.4146920621392
260.4147138803958
260.4147138803958
260.41473569865246
260.41473569865246
260.4147575169091
260.4147575169091
260.41477933516575
260.4148011534224
260.41482297167903
260.41482297167903
260.41484478993567
260.4148666081923
260.41488842644895
260.4149102447056
260.4149538812189
260.4149756994755
260.41499751773216
260.41504115424544
260.4150629725021
260.41510660901537
260.41515024552865
260.4151720637853
260.4152157002986
260.4152811550685
260.41532479158184
260.242119401278
260.242119401278
260.242119401278
260.242119401278
260.242142031216
260.242142031216
260.242142031216
260.242142031216
260.242142031216
260.2421646611541
260.2421646611541
260.2421646611541
260.2421646611541
260.24218729109214
260.24218729109214
260.24218729109214
260.2422099210302
260.2422099210302
260.24223255096825
260.24223255096825
260.2422551809063
260.2422551809063
260.24227781084437
260.2423004407824
260.2423004407824
260.2423230707205
260.2423457006585
260.24236833059655
260.24236833059655
260.24239096053464
260.24241359047267
260.2424588503488
260.2424814802868
260.2425041102249
260.24252674016293
260.24257200003905
260.2425946299771
260.2426398898532
260.2426851497293
260.24270777966734
260.24275303954346
260.2428209293576
260.06437816956065
260.06437816956065
260.06437816956065
260.0644016059045
260.0644016059045
260.0644016059045
260.0644016059045
260.0644016059045
260.06442504224833
260.06442504224833
260.06442504224833
260.06442504224833
260.06444847859217
260.06444847859217
260.06444847859217
260.064471914936
260.064471914936
260.064471914936
260.0644953512799
260.0644953512799
260.06451878762374
260.06451878762374
260.0645422239676
260.0645422239676
260.0645656603114
260.06458909665525
260.06458909665525
260.0646125329991
260.06463596934293
260.06465940568677
260.0646828420306
260.0647062783745
260.06472971471834
260.0647531510622
260.064776587406
260.06480002374985
260.06484689643753
260.06487033278137
260.0649172054691
260.0649640781568
260.0649875145006
260.0650343871883
259.8813173205159
259.8813173205159
259.8813173205159
259.8813173205159
259.8813173205159
259.8813173205159
259.8813173205159
259.8813415830539
259.8813415830539
259.8813415830539
259.8813415830539
259.88136584559186
259.88136584559186
259.88136584559186
259.88136584559186
259.88139010812984
259.88139010812984
259.88139010812984
259.8814143706678
259.8814143706678
259.8814386332058
259.8814386332058
259.8814386332058
259.88146289574377
259.88148715828174
259.88148715828174
259.8815114208197
259.8815114208197
259.8815356833577
259.8815599458957
259.88158420843365
259.8816084709716
259.8816327335096