/*--------------------------------*- C++ -*----------------------------------*\
| =========                 |                                                 |
| \\      /  F ield         | OpenFOAM: The Open Source CFD Toolbox           |
|  \\    /   O peration     | Version:  v2012                                 |
|   \\  /    A nd           | Website:  www.openfoam.com                      |
|    \\/     M anipulation  |                                                 |
\*---------------------------------------------------------------------------*/
FoamFile
{
    version     2.0;
    format      ascii;
    class       volVectorField;
    location    "0";
    object      U;
}
// * * * * * * * * * * * * * * * * * * * * * * * * * * * * * * * * * * * * * //

dimensions      [0 1 -1 0 0 0 0];


internalField   uniform (190 0 0);
8988
(
190.60357734428487
190.60357734428487
190.60357734428487
190.60357734428487
190.60357734428487
190.60357734428487
190.60357734428487
190.60357734428487
190.60357734428487
190.60357734428487
190.60357734428487
190.60357734428487
190.60357734428487
190.60357734428487
190.60357734428487
190.60357734428487
190.60357734428487
190.60357734428487
190.60357734428487
190.60357734428487
190.60357734428487
190.60357734428487
190.60357734428487
190.60357734428487
190.60357734428487
190.60357734428487
190.60357734428487
190.60357734428487
190.60357734428487
190.60357734428487
190.60357734428487
190.60357734428487
190.60357734428487
190.60357734428487
190.60357734428487
190.60357734428487
190.60357734428487
190.60357734428487
190.60357734428487
190.60357734428487
190.60357734428487
190.60357734428487
190.6539001301301
190.65389957376922
190.65389957376922
190.65389957376922
190.65389901740835
190.65389901740835
190.65389901740835
190.65389846104745
190.65389846104745
190.65389790468657
190.65389790468657
190.6538973483257
190.6538973483257
190.65389679196483
190.65389679196483
190.65389623560395
190.65389567924308
190.65389512288218
190.6538945665213
190.6538945665213
190.65389401016043
190.65389345379955
190.6538923410778
190.6538917847169
190.65389122835603
190.65389067199516
190.6538895592734
190.65388900291254
190.65388789019076
190.653886777469
190.65388566474726
190.6538845520255
190.65388343930374
190.65388232658196
190.65388065749934
190.6538795447776
190.65387787569495
190.65387620661232
190.65387453752967
190.65387231208615
190.65387064300353
190.65386841756
190.75393555076639
190.75393555076639
190.75393555076639
190.75393443921232
190.75393332765825
190.75393332765825
190.75393221610415
190.75393221610415
190.75393110455008
190.753929992996
190.75392888144194
190.75392776988787
190.75392776988787
190.75392665833377
190.75392443522563
190.75392332367156
190.75392221211746
190.7539211005634
190.75391887745525
190.75391776590118
190.753915542793
190.75391443123894
190.7539122081308
190.75390998502263
190.7539077619145
190.75390442725225
190.7539022041441
190.75389998103594
190.75389664637373
190.7538933117115
190.75388997704925
190.75388553083295
190.75388219617074
190.75387774995443
190.75387330373812
190.7538688575218
190.75386329975143
190.75385774198105
190.7538510726566
190.75384551488622
190.75383884556177
190.75383106468323
190.90316347092096
190.90316180444503
190.90316180444503
190.9031601379691
190.90315847149316
190.90315680501723
190.9031551385413
190.90315347206538
190.90315347206538
190.9031501391135
190.90314847263758
190.90314680616166
190.90314513968573
190.90314180673386
190.90314014025793
190.90313680730608
190.90313514083013
190.90313180787828
190.9031284749264
190.90312514197456
190.9031218090227
190.9031168095949
190.90311347664303
190.90310847721526
190.90310347778745
190.90309847835965
190.90309347893188
190.90308681302815
190.90308014712443
190.9030734812207
190.90306681531698
190.90305848293733
190.90305015055768
190.90304181817802
190.90303181932245
190.90302182046685
190.90301182161127
190.90300015627977
190.90298682447232
190.90297349266487
190.90296016085742
190.90294516257404
191.10079645074276
191.10079423258995
191.10079201443713
191.10078979628432
191.1007875781315
191.10078535997866
191.10078314182584
191.10078092367303
191.1007787055202
191.10077426921458
191.10077205106177
191.10076761475614
191.1007653966033
191.10076096029766
191.10075652399203
191.1007520876864
191.10074765138074
191.1007432150751
191.10073656061667
191.10072990615822
191.10072546985256
191.10071881539412
191.10070994278283
191.10070328832438
191.10069441571312
191.10068554310183
191.10067667049057
191.10066779787928
191.1006567071152
191.1006456163511
191.10063230743418
191.1006189985173
191.10060568960037
191.10059016253064
191.1005746354609
191.10055689023838
191.10053914501583
191.10051918164046
191.10049700011226
191.10047481858408
191.1004526370559
191.10042601922208
191.3461265515299
191.34612378416008
191.34612101679028
191.34611824942047
191.34611548205066
191.34611271468086
191.34610717994124
191.34610441257144
191.34610164520163
191.346096110462
191.3460905757224
191.34608504098279
191.34607950624317
191.34607397150356
191.34606843676394
191.34606013465452
191.3460545999149
191.3460462978055
191.34603799569607
191.34602969358664
191.34602139147722
191.346010321998
191.34599925251877
191.34598818303954
191.3459743461905
191.34596327671127
191.34594667249243
191.34593283564337
191.34591623142452
191.34589962720568
191.34588025561703
191.34586088402838
191.34583874506993
191.34581660611147
191.345794467153
191.34576679345494
191.34573911975687
191.3457114460588
191.34567823762112
191.34564502918343
191.34560905337594
191.3455703101986
191.6385208282648
191.63851751340005
191.63851419853526
191.6385108836705
191.63850756880572
191.63850093907618
191.63849762421142
191.63849099448188
191.63848436475234
191.6384777350228
191.63847110529326
191.63846447556372
191.63845784583418
191.63844790123986
191.63844127151035
191.63843132691602
191.63842138232172
191.63840812286264
191.63839817826832
191.63838491880924
191.63837165935016
191.6383583998911
191.63834182556724
191.63832856610816
191.63830867691954
191.6382921025957
191.63827221340708
191.6382490093537
191.63822912016508
191.63820260124692
191.63817939719354
191.6381495634106
191.63811972962768
191.63808989584476
191.63805674719706
191.6380202836846
191.63798050530735
191.6379407269301
191.63789431882333
191.63784791071657
191.63779818774503
191.6377451499087
191.97777512199735
191.9777712565123
191.9777673910273
191.97775966005722
191.9777557945722
191.97774806360215
191.97774033263207
191.977732601662
191.97772487069196
191.9777171397219
191.97770940875182
191.97769781229673
191.97769008132667
191.97767848487157
191.97766688841648
191.9776552919614
191.97763983002127
191.97762823356618
191.97761277162607
191.9775934442009
191.97757798226078
191.97755865483563
191.97753932741048
191.9775161345003
191.9774929415901
191.9774697486799
191.9774426902847
191.97741563188947
191.97738470800923
191.97735378412898
191.97731899476372
191.97728420539843
191.97724555054813
191.9772030302128
191.9771566443924
191.97711025857205
191.97706000726666
191.97700589047622
191.97694404271573
191.97688219495524
191.9768164817097
191.97674303749412
192.36268064912466
192.36267183365308
192.36266742591732
192.36265861044575
192.36265420270996
192.36264538723842
192.36263657176684
192.36262775629527
192.36261453308794
192.36260571761636
192.36259249440903
192.36258367893745
192.36257045573012
192.36255723252276
192.36253960157964
192.3625263783723
192.36250874742916
192.36249111648604
192.36246907780713
192.36245144686401
192.3624294081851
192.3624029617704
192.36237651535572
192.36235006894103
192.36232362252633
192.36229276837588
192.3622575064896
192.36222224460337
192.3621869827171
192.3621429053593
192.36209882800148
192.36205475064367
192.36200626555006
192.3619533727207
192.36189607215553
192.3618343638546
192.36176824781788
192.36169772404537
192.36162720027286
192.36154786102878
192.36145970631316
192.36137155159753
192.79280142971152
192.79279647930775
192.79278657850026
192.79277667769276
192.79276677688523
192.79275687607773
192.79274697527023
192.7927370744627
192.79272222325145
192.79271232244395
192.79269747123269
192.79268262002142
192.79266776881016
192.79264796719514
192.79263311598388
192.79261331436885
192.7925885623501
192.79256876073507
192.7925440087163
192.79251925669752
192.792489554275
192.79246480225623
192.79243014942995
192.79239549660366
192.7923608437774
192.79232619095112
192.79228163731733
192.79223708368355
192.79219253004976
192.7921430260122
192.7920885715709
192.79203411712962
192.7919697618808
192.791905406632
192.79183610097945
192.79176184492314
192.79168263846307
192.7915935311955
192.7915044239279
192.79140541585284
192.791301457374
192.79118759808765
193.26812480294382
193.26811930469773
193.2681083082056
193.26809731171343
193.2680863152213
193.26807531872913
193.2680588239909
193.26804782749875
193.26803133276053
193.2680148380223
193.2679983432841
193.26798184854584
193.26796535380763
193.26794336082332
193.26792136783902
193.26789937485472
193.26787188362434
193.26784439239395
193.2678169011636
193.26778391168713
193.26775092221067
193.26771793273423
193.2676794450117
193.26764095728916
193.26759697132056
193.26755298535195
193.26750350113727
193.26744851867653
193.26739353621576
193.26733305550894
193.26726707655604
193.26720109760313
193.26712962040415
193.267047146713
193.26696467302187
193.26687670108467
193.2667777326553
193.26667876422593
193.26656879930442
193.26644783789078
193.26632137823103
193.26618942032522
193.7876065358864
193.7876065358864
193.7876065358864
193.78754614297188
193.78754614297188
193.78754614297188
193.78754614297188
193.78748575005733
193.78748575005733
193.78748575005733
193.7874253571428
193.7874253571428
193.7874253571428
193.78736496422826
193.78736496422826
193.78730457131374
193.78730457131374
193.7872441783992
193.7872441783992
193.78718378548467
193.78718378548467
193.78712339257012
193.7870629996556
193.78700260674105
193.78700260674105
193.78694221382653
193.786881820912
193.78682142799747
193.78676103508292
193.7867006421684
193.78657985633933
193.78651946342478
193.78639867759574
193.7863382846812
193.78621749885212
193.7861571059376
193.78603632010854
193.78591553427947
193.7857947484504
193.78561356970678
193.78549278387771
193.78531160513413
194.35097483790298
194.35097483790298
194.35097483790298
194.35097483790298
194.3509090084683
194.3509090084683
194.3509090084683
194.3509090084683
194.3508431790336
194.3508431790336
194.3508431790336
194.35077734959893
194.35077734959893
194.35077734959893
194.35071152016425
194.35071152016425
194.35064569072958
194.35064569072958
194.35057986129488
194.3505140318602
194.3505140318602
194.35044820242553
194.35038237299082
194.35031654355615
194.35025071412147
194.3501848846868
194.3501190552521
194.35005322581742
194.34998739638274
194.34992156694804
194.34985573751337
194.34972407864402
194.3496582492093
194.34952659033996
194.34939493147058
194.3493291020359
194.34919744316653
194.3489999548625
194.34886829599313
194.34873663712375
194.34853914881973
194.34834166051567
194.95800900309666
194.95800900309666
194.95793772148966
194.95793772148966
194.95793772148966
194.95793772148966
194.95786643988268
194.95786643988268
194.95786643988268
194.95779515827567
194.95779515827567
194.95779515827567
194.95772387666867
194.95772387666867
194.95765259506166
194.95765259506166
194.95758131345468
194.95758131345468
194.95751003184768
194.95743875024067
194.95743875024067
194.9573674686337
194.95729618702669
194.95722490541968
194.9571536238127
194.9570823422057
194.9570110605987
194.95693977899168
194.9568684973847
194.9567972157777
194.9566546525637
194.9565833709567
194.95644080774272
194.9562982445287
194.9562269629217
194.95608439970772
194.95587055488673
194.95572799167275
194.95558542845873
194.95537158363774
194.95522902042376
194.95501517560277
195.60778884118108
195.60778884118108
195.60778884118108
195.60778884118108
195.6077121438442
195.6077121438442
195.6077121438442
195.6077121438442
195.60763544650732
195.60763544650732
195.60755874917044
195.60755874917044
195.60755874917044
195.60748205183353
195.60748205183353
195.60740535449665
195.60740535449665
195.60732865715977
195.6072519598229
195.6072519598229
195.607175262486
195.60709856514913
195.60702186781222
195.60694517047534
195.60686847313846
195.60679177580158
195.6067150784647
195.60663838112782
195.60656168379091
195.60640828911716
195.60633159178028
195.60617819710652
195.6061014997696
195.60594810509585
195.6057947104221
195.6056413157483
195.60548792107454
195.6052578290639
195.6051044343901
195.60487434237947
195.6046442503688
195.60441415835817
196.29979334240042
196.29979334240042
196.29979334240042
196.29979334240042
196.29971125408474
196.29971125408474
196.29971125408474
196.29962916576906
196.29962916576906
196.29962916576906
196.29954707745335
196.29954707745335
196.29954707745335
196.29946498913768
196.29946498913768
196.299382900822
196.29930081250632
196.29930081250632
196.29921872419064
196.29913663587496
196.29913663587496
196.29905454755925
196.29897245924357
196.2988903709279
196.2988082826122
196.29872619429653
196.29864410598083
196.29847992934947
196.2983978410338
196.2983157527181
196.29815157608672
196.29806948777104
196.2979053111397
196.2977411345083
196.29757695787694
196.29741278124558
196.2972486046142
196.29700233966716
196.29683816303577
196.29659189808874
196.29634563314167
196.29609936819463
197.03391177554022
197.03391177554022
197.03391177554022
197.03382425545996
197.03382425545996
197.03382425545996
197.0337367353797
197.0337367353797
197.0337367353797
197.03364921529948
197.03364921529948
197.03356169521922
197.03356169521922
197.03356169521922
197.03347417513896
197.0333866550587
197.0333866550587
197.03329913497848
197.03321161489822
197.03321161489822
197.03312409481796
197.0330365747377
197.03294905465745
197.03286153457722
197.03277401449697
197.0326864944167
197.03259897433645
197.03251145425622
197.0323364140957
197.03224889401545
197.03207385385497
197.0319863337747
197.0318112936142
197.0316362534537
197.0314612132932
197.0312861731327
197.03102361289194
197.03084857273146
197.03058601249072
197.03032345224995
197.0300608920092
197.02979833176846
197.8100736086862
197.8100736086862
197.8100736086862
197.8100736086862
197.8099805994791
197.8099805994791
197.8099805994791
197.809887590272
197.809887590272
197.809887590272
197.80979458106492
197.80979458106492
197.80970157185786
197.80970157185786
197.80960856265077
197.80960856265077
197.80951555344367
197.80942254423658
197.80942254423658
197.8093295350295
197.8092365258224
197.8091435166153
197.80905050740824
197.80895749820115
197.80886448899406
197.80877147978697
197.80867847057988
197.8085854613728
197.80839944295863
197.80830643375154
197.80812041533736
197.80802740613026
197.80784138771608
197.80765536930193
197.80746935088774
197.80719032326647
197.8070043048523
197.80681828643813
197.80653925881685
197.8062602311956
197.80598120357433
197.805609166746
198.62708186029482
198.62708186029482
198.6269834729813
198.6269834729813
198.6269834729813
198.6269834729813
198.62688508566774
198.62688508566774
198.62688508566774
198.6267866983542
198.6267866983542
198.62668831104068
198.62668831104068
198.62658992372715
198.62658992372715
198.6264915364136
198.6264915364136
198.62639314910007
198.62629476178654
198.62619637447298
198.62619637447298
198.62609798715945
198.62599959984593
198.62590121253237
198.62580282521884
198.62560605059178
198.62550766327823
198.6254092759647
198.62521250133761
198.6251141140241
198.62491733939703
198.62481895208347
198.62462217745642
198.62442540282933
198.62422862820225
198.62393346626166
198.62373669163458
198.62344152969396
198.62324475506688
198.6229495931263
198.62255604387212
198.62226088193154
199.48490544983184
199.4848016222369
199.4848016222369
199.4848016222369
199.4848016222369
199.48469779464193
199.48469779464193
199.48469779464193
199.48459396704698
199.48459396704698
199.48449013945202
199.48449013945202
199.48438631185707
199.48438631185707
199.4842824842621
199.4842824842621
199.48417865666715
199.48407482907217
199.48407482907217
199.48397100147722
199.48386717388226
199.4837633462873
199.48365951869235
199.4835556910974
199.48345186350244
199.48334803590748
199.48324420831253
199.48303655312262
199.48293272552766
199.48272507033775
199.4826212427428
199.48241358755286
199.48220593236294
199.48199827717303
199.48179062198312
199.4815829667932
199.48127148400835
199.48106382881844
199.48075234603354
199.48044086324867
199.4801293804638
199.479714070084
200.38354543361973
200.38354543361973
200.38343611002074
200.38343611002074
200.38343611002074
200.38332678642172
200.38332678642172
200.38332678642172
200.38321746282273
200.38321746282273
200.38321746282273
200.38310813922374
200.38310813922374
200.38299881562472
200.38299881562472
200.38288949202573
200.38278016842673
200.38278016842673
200.38267084482771
200.38256152122872
200.38245219762973
200.3823428740307
200.38223355043172
200.38212422683273
200.3820149032337
200.38190557963472
200.38179625603573
200.38157760883772
200.38146828523873
200.3812496380407
200.38114031444172
200.3809216672437
200.3807030200457
200.3804843728477
200.3802657256497
200.3800470784517
200.3797191076547
200.3793911368577
200.37917248965968
200.37884451886268
200.37840722446668
200.37807925366968
201.32182962351905
201.32171490482608
201.32171490482608
201.32171490482608
201.32171490482608
201.32160018613308
201.32160018613308
201.32160018613308
201.3214854674401
201.3214854674401
201.3213707487471
201.3213707487471
201.32125603005414
201.32125603005414
201.32114131136115
201.32114131136115
201.32102659266818
201.3209118739752
201.3209118739752
201.3207971552822
201.32068243658924
201.32056771789624
201.32045299920327
201.3203382805103
201.3202235618173
201.32010884312433
201.31999412443133
201.31976468704536
201.3196499683524
201.31942053096643
201.31930581227346
201.3190763748875
201.31884693750152
201.31861750011555
201.31838806272958
201.31804390665064
201.31781446926468
201.31747031318574
201.3171261571068
201.31678200102786
201.3164378449489
201.31609368886996
202.3001827568218
202.3001827568218
202.3001827568218
202.3001827568218
202.3000625217065
202.3000625217065
202.3000625217065
202.29994228659118
202.29994228659118
202.29994228659118
202.29982205147587
202.29982205147587
202.29970181636057
202.29970181636057
202.29958158124523
202.29946134612993
202.29946134612993
202.29934111101463
202.2992208758993
202.2992208758993
202.299100640784
202.2989804056687
202.29886017055335
202.29873993543805
202.29861970032275
202.2984994652074
202.2982589949768
202.2981387598615
202.29789828963087
202.29777805451556
202.29753758428492
202.29741734916962
202.29717687893898
202.29693640870835
202.2965757033624
202.2963352331318
202.29609476290116
202.29573405755522
202.29537335220928
202.29501264686334
202.2946519415174
202.29417100105616
203.31784032270315
203.31784032270315
203.31784032270315
203.31771463941726
203.31771463941726
203.31771463941726
203.31771463941726
203.31758895613137
203.31758895613137
203.31746327284546
203.31746327284546
203.31733758955957
203.31733758955957
203.31721190627368
203.31721190627368
203.3170862229878
203.3170862229878
203.31696053970188
203.316834856416
203.3167091731301
203.3167091731301
203.31658348984422
203.31645780655833
203.31633212327242
203.31620643998653
203.31595507341476
203.31582939012884
203.31570370684295
203.31545234027118
203.31532665698526
203.3150752904135
203.3148239238417
203.3146982405558
203.31444687398402
203.31406982412634
203.31381845755456
203.31356709098276
203.3131900411251
203.3128129912674
203.31243594140972
203.31205889155203
203.31155615840845
204.37443655036603
204.37443655036603
204.37443655036603
204.37443655036603
204.37430539393262
204.37430539393262
204.37430539393262
204.37417423749918
204.37417423749918
204.37404308106576
204.37404308106576
204.37404308106576
204.37391192463232
204.37391192463232
204.3737807681989
204.37364961176547
204.37364961176547
204.37351845533206
204.37338729889865
204.37338729889865
204.3732561424652
204.3731249860318
204.37299382959836
204.37286267316495
204.3727315167315
204.3726003602981
204.37233804743124
204.37220689099783
204.3720757345644
204.37181342169754
204.37155110883072
204.37141995239728
204.37115763953042
204.37089532666357
204.37063301379675
204.37023954449646
204.3699772316296
204.36958376232934
204.3693214494625
204.36892798016223
204.36840335442852
204.36800988512826
205.46960384717295
205.46960384717295
205.4694672245062
205.4694672245062
205.4694672245062
205.4693306018394
205.4693306018394
205.4693306018394
205.46919397917264
205.46919397917264
205.46919397917264
205.46905735650589
205.46905735650589
205.4689207338391
205.4689207338391
205.46878411117234
205.46864748850558
205.46864748850558
205.4685108658388
205.46837424317204
205.46823762050528
205.46823762050528
205.46810099783852
205.46796437517173
205.46782775250497
205.46755450717143
205.46741788450467
205.4672812618379
205.46700801650437
205.4668713938376
205.46659814850406
205.4664615258373
205.46618828050376
205.46591503517024
205.4656417898367
205.46536854450315
205.46495867650285
205.46468543116933
205.46427556316902
205.46386569516872
205.46345582716842
205.46290933650135
206.6029689574115
206.6029689574115
206.6029689574115
206.60282684266411
206.60282684266411
206.60282684266411
206.60268472791677
206.60268472791677
206.60268472791677
206.6025426131694
206.6025426131694
206.6025426131694
206.60240049842204
206.60240049842204
206.60225838367467
206.6021162689273
206.6021162689273
206.60197415417994
206.60183203943257
206.60183203943257
206.6016899246852
206.60154780993784
206.60140569519046
206.60126358044312
206.60112146569574
206.60097935094836
206.60083723620102
206.6005530067063
206.60041089195892
206.60026877721154
206.59998454771682
206.5997003182221
206.59955820347471
206.59927397398
206.59898974448527
206.59856340024317
206.59827917074844
206.59799494125372
206.59756859701162
206.59714225276952
206.59671590852741
206.5962895642853
207.77458293871206
207.77458293871206
207.77458293871206
207.77458293871206
207.77443528729665
207.77443528729665
207.77443528729665
207.77428763588122
207.77428763588122
207.77428763588122
207.77413998446582
207.77413998446582
207.77399233305042
207.77399233305042
207.77384468163498
207.77384468163498
207.77369703021958
207.77369703021958
207.77354937880418
207.77340172738874
207.77325407597334
207.77310642455794
207.77310642455794
207.7729587731425
207.7728111217271
207.77251581889627
207.77236816748086
207.77222051606546
207.77207286465003
207.77177756181922
207.77162991040382
207.77133460757298
207.77103930474215
207.77074400191134
207.7704486990805
207.77015339624967
207.76985809341886
207.76956279058803
207.7691198363418
207.76867688209555
207.7682339278493
207.76779097360307
208.9840681813704
208.98391500441463
208.98391500441463
208.98391500441463
208.98391500441463
208.98376182745886
208.98376182745886
208.98376182745886
208.98360865050313
208.98360865050313
208.98360865050313
208.98345547354737
208.98345547354737
208.9833022965916
208.9833022965916
208.98314911963584
208.98314911963584
208.9829959426801
208.98284276572434
208.98284276572434
208.98268958876858
208.98253641181282
208.98238323485705
208.98223005790132
208.98207688094556
208.9819237039898
208.98177052703403
208.98161735007827
208.98146417312253
208.981157819211
208.98100464225524
208.98069828834375
208.98039193443222
208.98023875747646
208.97993240356496
208.97947287269767
208.97916651878617
208.97886016487465
208.9784006340074
208.97809428009586
208.9776347492286
208.9771752183613
210.2301368286242
210.2301368286242
210.2301368286242
210.22997819480534
210.22997819480534
210.22997819480534
210.22997819480534
210.22981956098647
210.22981956098647
210.22981956098647
210.2296609271676
210.2296609271676
210.2295022933487
210.2295022933487
210.2295022933487
210.22934365952983
210.22918502571096
210.22918502571096
210.2290263918921
210.2290263918921
210.22886775807322
210.22870912425435
210.22855049043548
210.2283918566166
210.22823322279774
210.22807458897884
210.22791595515997
210.2277573213411
210.22759868752223
210.2272814198845
210.22712278606562
210.22680551842785
210.22664688460898
210.22632961697124
210.2260123493335
210.22569508169573
210.225377814058
210.22506054642025
210.22458464496364
210.22426737732587
210.22379147586926
210.22331557441265
211.51369408620548
211.51369408620548
211.51369408620548
211.51369408620548
211.51352986444786
211.51352986444786
211.51352986444786
211.51352986444786
211.51336564269022
211.51336564269022
211.51336564269022
211.5132014209326
211.5132014209326
211.513037199175
211.513037199175
211.51287297741737
211.51287297741737
211.51270875565973
211.51270875565973
211.51254453390212
211.5123803121445
211.5122160903869
211.5122160903869
211.51205186862924
211.51188764687163
211.511723425114
211.51155920335637
211.51139498159876
211.51123075984114
211.51090231632588
211.51073809456827
211.510409651053
211.5102454292954
211.50991698578014
211.5095885422649
211.50926009874965
211.50893165523442
211.50860321171916
211.5082747682039
211.50778210293106
211.5072894376582
211.50696099414293
212.83385843481307
212.83385843481307
212.83385843481307
212.83385843481307
212.83368868242158
212.83368868242158
212.83368868242158
212.83368868242158
212.8335189300301
212.8335189300301
212.8335189300301
212.83334917763858
212.83334917763858
212.83317942524712
212.83317942524712
212.8330096728556
212.8330096728556
212.83283992046412
212.83283992046412
212.83267016807264
212.83250041568115
212.83250041568115
212.83233066328967
212.83216091089818
212.8319911585067
212.8318214061152
212.8316516537237
212.8314819013322
212.83131214894073
212.83114239654924
212.83097264415775
212.83063313937478
212.8304633869833
212.83012388220033
212.82978437741733
212.82944487263435
212.82910536785138
212.8287658630684
212.8284263582854
212.82808685350244
212.82757759632798
212.8270683391535
214.19015819794058
214.19015819794058
214.19015819794058
214.18998292012162
214.18998292012162
214.18998292012162
214.18998292012162
214.18980764230264
214.18980764230264
214.18980764230264
214.18980764230264
214.18963236448369
214.18963236448369
214.18945708666473
214.18945708666473
214.18928180884578
214.18928180884578
214.1891065310268
214.1891065310268
214.18893125320784
214.18893125320784
214.1887559753889
214.18858069756993
214.18858069756993
214.18840541975098
214.188230141932
214.18805486411304
214.18787958629406
214.1877043084751
214.18752903065615
214.18717847501821
214.18700319719926
214.1868279193803
214.18647736374237
214.18612680810446
214.1859515302855
214.18560097464757
214.18525041900963
214.18489986337173
214.18437402991484
214.1840234742769
214.18349764082004
215.58256244814945
215.58256244814945
215.58256244814945
215.58238159294095
215.58238159294095
215.58238159294095
215.58238159294095
215.58220073773245
215.58220073773245
215.58220073773245
215.58220073773245
215.58201988252395
215.58201988252395
215.58201988252395
215.58183902731545
215.58183902731545
215.58165817210698
215.58165817210698
215.58147731689846
215.58147731689846
215.58129646169
215.5811156064815
215.5811156064815
215.580934751273
215.5807538960645
215.580573040856
215.5803921856475
215.5803921856475
215.580211330439
215.579849620022
215.5796687648135
215.579487909605
215.5793070543965
215.57894534397954
215.57876448877104
215.57840277835405
215.57804106793705
215.57767935752005
215.57731764710306
215.5769559366861
215.5765942262691
215.5760516606436
217.01006253045955
217.01006253045955
217.01006253045955
217.01006253045955
217.01006253045955
217.00987617274646
217.00987617274646
217.00987617274646
217.00987617274646
217.00968981503337
217.00968981503337
217.00968981503337
217.00950345732028
217.00950345732028
217.00950345732028
217.00931709960716
217.00931709960716
217.00913074189407
217.00913074189407
217.00894438418098
217.00894438418098
217.0087580264679
217.0087580264679
217.0085716687548
217.0083853110417
217.0081989533286
217.0081989533286
217.0080125956155
217.0078262379024
217.00763988018932
217.00745352247623
217.00708080705002
217.00689444933693
217.00670809162384
217.00633537619763
217.00614901848454
217.00577630305835
217.00540358763217
217.00521722991908
217.00484451449287
217.0042854413536
217.0039127259274
218.47354302036157
218.47354302036157
218.47354302036157
218.47354302036157
218.47335101295013
218.47335101295013
218.47335101295013
218.47335101295013
218.47335101295013
218.47315900553872
218.47315900553872
218.47315900553872
218.47315900553872
218.47296699812728
218.47296699812728
218.47296699812728
218.47277499071586
218.47277499071586
218.47258298330442
218.47258298330442
218.472390975893
218.472390975893
218.47219896848156
218.47200696107015
218.47200696107015
218.4718149536587
218.4716229462473
218.47143093883588
218.47143093883588
218.47123893142444
218.47104692401302
218.47066290919017
218.47047090177873
218.4702788943673
218.47008688695587
218.469702872133
218.4695108647216
218.46912684989874
218.4687428350759
218.46855082766444
218.4681668128416
218.46759079060732
219.9714316574907
219.9714316574907
219.9714316574907
219.9712341510776
219.9712341510776
219.9712341510776
219.9712341510776
219.9712341510776
219.97103664466445
219.97103664466445
219.97103664466445
219.97103664466445
219.97083913825134
219.97083913825134
219.97083913825134
219.97064163183822
219.97064163183822
219.97064163183822
219.9704441254251
219.9704441254251
219.97024661901196
219.97024661901196
219.97004911259884
219.97004911259884
219.96985160618573
219.9696540997726
219.9696540997726
219.96945659335947
219.96925908694635
219.96906158053324
219.96886407412012
219.96866656770698
219.96846906129386
219.96827155488074
219.9680740484676
219.96787654205448
219.96748152922825
219.9672840228151
219.96688900998888
219.96649399716262
219.9662964907495
219.96590147792327
221.50356230710668
221.50356230710668
221.50356230710668
221.50356230710668